Version 4
SHEET 1 1112 1044
WIRE 1072 0 992 0
WIRE 1088 0 1072 0
WIRE 224 64 208 64
WIRE 384 64 304 64
WIRE 992 64 992 0
WIRE 208 160 208 64
WIRE 208 160 176 160
WIRE 240 160 208 160
WIRE 384 176 384 64
WIRE 384 176 304 176
WIRE 464 176 384 176
WIRE 528 176 464 176
WIRE 624 176 528 176
WIRE 240 192 224 192
WIRE 992 192 992 144
WIRE 992 192 864 192
WIRE 96 224 96 160
WIRE 992 224 992 192
WIRE 224 240 224 192
WIRE 224 240 176 240
WIRE 864 240 864 192
WIRE -320 304 -608 304
WIRE -128 304 -240 304
WIRE 176 304 176 240
WIRE 176 304 -128 304
WIRE 992 400 992 304
WIRE 1072 400 992 400
WIRE 1088 400 1072 400
WIRE -608 432 -608 384
WIRE 992 592 912 592
WIRE 1008 592 992 592
WIRE 144 656 128 656
WIRE 304 656 224 656
WIRE 912 656 912 592
WIRE 128 752 128 656
WIRE 128 752 96 752
WIRE 160 752 128 752
WIRE 304 768 304 656
WIRE 304 768 224 768
WIRE 384 768 304 768
WIRE 448 768 384 768
WIRE 544 768 448 768
WIRE 160 784 144 784
WIRE 912 784 912 736
WIRE 912 784 784 784
WIRE 16 816 16 752
WIRE 912 816 912 784
WIRE 144 832 144 784
WIRE 144 832 96 832
WIRE 784 832 784 784
WIRE 96 896 96 832
WIRE 96 896 -688 896
WIRE 912 992 912 896
WIRE 992 992 912 992
WIRE 1008 992 992 992
WIRE -688 1024 -688 976
FLAG 96 224 0
FLAG -608 432 0
FLAG 272 144 vdd
FLAG 272 208 vss
FLAG 1072 0 vdd
FLAG 1072 400 vss
FLAG 864 240 0
FLAG 464 176 vout
FLAG 176 240 vin
FLAG 528 256 0
FLAG 624 240 0
FLAG -128 368 0
FLAG 16 816 0
FLAG -688 1024 0
FLAG 192 736 vdd
FLAG 192 800 vss
FLAG 992 592 vdd
FLAG 992 992 vss
FLAG 784 832 0
FLAG 384 768 vout
FLAG 96 832 vin
FLAG 448 848 0
FLAG 544 832 0
SYMBOL res 192 144 R90
WINDOW 0 0 56 VBottom 2
WINDOW 3 32 56 VTop 2
SYMATTR InstName R1
SYMATTR Value 1k
SYMBOL res 320 48 R90
WINDOW 0 0 56 VBottom 2
WINDOW 3 32 56 VTop 2
SYMATTR InstName R2
SYMATTR Value 9k
SYMBOL voltage -608 288 R0
WINDOW 123 24 124 Left 2
WINDOW 39 0 0 Left 0
SYMATTR Value2 AC 1
SYMATTR InstName V1
SYMATTR Value PULSE(0 1 10n 10n 10n 500n 1u 2)
SYMBOL voltage 992 48 R0
WINDOW 123 0 0 Left 0
WINDOW 39 0 0 Left 0
SYMATTR InstName V2
SYMATTR Value 12
SYMBOL voltage 992 208 R0
WINDOW 123 0 0 Left 0
WINDOW 39 0 0 Left 0
SYMATTR InstName V3
SYMATTR Value 12
SYMBOL res 512 160 R0
SYMATTR InstName R3
SYMATTR Value 1k
SYMBOL cap 608 176 R0
SYMATTR InstName C1
SYMATTR Value 1p
SYMBOL OpAmps\\AD8067 272 112 R0
SYMATTR InstName U2
SYMBOL res -224 288 R90
WINDOW 0 0 56 VBottom 2
WINDOW 3 32 56 VTop 2
SYMATTR InstName R4
SYMATTR Value 40k
SYMBOL cap -144 304 R0
SYMATTR InstName C2
SYMATTR Value 1p
SYMBOL res 112 736 R90
WINDOW 0 0 56 VBottom 2
WINDOW 3 32 56 VTop 2
SYMATTR InstName R5
SYMATTR Value 1k
SYMBOL res 240 640 R90
WINDOW 0 0 56 VBottom 2
WINDOW 3 32 56 VTop 2
SYMATTR InstName R6
SYMATTR Value 9k
SYMBOL voltage -688 880 R0
WINDOW 123 24 124 Left 2
WINDOW 39 0 0 Left 0
SYMATTR Value2 AC 1
SYMATTR InstName V4
SYMATTR Value PULSE(0 1 10n 10n 10n 500n 1u 2)
SYMBOL voltage 912 640 R0
WINDOW 123 0 0 Left 0
WINDOW 39 0 0 Left 0
SYMATTR InstName V5
SYMATTR Value 12
SYMBOL voltage 912 800 R0
WINDOW 123 0 0 Left 0
WINDOW 39 0 0 Left 0
SYMATTR InstName V6
SYMATTR Value 12
SYMBOL res 432 752 R0
SYMATTR InstName R7
SYMATTR Value 1k
SYMBOL cap 528 768 R0
SYMATTR InstName C3
SYMATTR Value 1p
SYMBOL OpAmps\\AD8067 192 704 R0
SYMATTR InstName U1
TEXT -56 0 Left 2 !.tran 2u
TEXT -56 -56 Left 2 !.ac dec 100 100 100000000
TEXT -2032 80 Left 2 ;THE RC CIRCUIT IN THE INPUT ACT AS POLE SPLITTER, INTRODUCING A POLE APPROSIMATELY AT 4Mhz..
TEXT -2032 136 Left 2 ;THIS RESOLVE THE PROBLEM OF THE AD8067 OF HIGH INSTABILITY EVEN AT GAINS OF 10.
TEXT -2032 192 Left 2 ;BEFORE THIS, IT CAN BE SEEN A RESONANCE SPIKE THAT IS ATTENUATED BY THE POLE SPLITTING
